tuned57.m
function mpc = nmwc57
% NMWC57
% Data for the modified version of the IEEE 57-bus system proposed in
%
% M. R. Narimani, D. K. Molzahn, D. Wu, and M. L. Crow, "Empirical 
% Investigation of Non-Convexities in Optimal Power Flow Problems," 
% American Control Conference, Milwaukee, WI, USA, June 2018.
%
% This test system is constructed by modifying the IEEE 57-bus test case 
% via reducing the loading, slightly tightening the voltage limits, and 
% significantly tightening the lower reactive power generation limits. The 
% goal of these modifications is to obtain a test case with operational 
% conditions where lower limits on voltage magnitudes and reactive power 
% generation are binding. As discussed in the reference above, these
% operational conditions appear associated with non-convex feasible spaces
% that challenge a variety of solution algorithms. See the reference above
% for the specific modifications to the IEEE 57-bus test case.
%
% Detailed data regarding various local solutions are provided at the end 
% of this file. 
%
% Mohammad Rasoul Narimani, ECE Department, Missouri University of Science 
% and Technology, mn9t5@mst.edu
%
% Daniel K. Molzahn, Energy Systems Division, Argonne National Laboratory, 
% dan.molzahn@gmail.com
%
% Dan Wu, Mechanical Engineering Department, Massachusetts Institute of 
% Technology, danwumit@mit.edu
%
% Mariesa L. Crow, ECE Department, Missouri University of Science 
% and Technology, crow@mst.edu
% 
% March 15, 2018


%% MATPOWER Case Format : Version 2
mpc.version = '2';

%%-----  Power Flow Data  -----%%
%% system MVA base
mpc.baseMVA = 100;

%% bus data
%	bus_i	type	Pd	Qd	Gs	Bs	area	Vm	Va	baseKV	zone	Vmax	Vmin
mpc.bus = [
1	3	15.4	4.76	0	0	1	0.94155	0	0	1	1.0494	0.9494
2	2	0.84	24.64	0	0	1	1.03347	-1.18	0	1	1.0494	0.9494
3	2	11.48	5.88	0	0	1	1.02737	-5.97	0	1	1.0494	0.9494
4	1	0	0	0	0	1	0.95614	-7.32	0	1	1.0494	0.9494
5	1	3.64	1.12	0	0	1	0.97836	-8.52	0	1	1.0494	0.9494
6	2	21	0.56	0	0	1	1.05131	-8.65	0	1	1.0494	0.9494
7	1	0	0	0	0	1	1.02857	-7.58	0	1	1.0494	0.9494
8	2	42	6.16	0	0	1	0.94915	-4.45	0	1	1.0494	0.9494
9	2	33.88	7.28	0	0	1	0.97102	-9.56	0	1	1.0494	0.9494
10	1	1.4	0.56	0	0	1	1.00867	-11.43	0	1	1.0494	0.9494
11	1	0	0	0	0	1	1.00435	-10.17	0	1	1.0494	0.9494
12	2	105.56	6.72	0	0	1	0.94213	-10.46	0	1	1.0494	0.9494
13	1	5.04	0.644	0	0	1	0.96183	-9.79	0	1	1.0494	0.9494
14	1	2.94	1.484	0	0	1	1.04411	-9.33	0	1	1.0494	0.9494
15	1	6.16	1.4	0	0	1	0.95155	-7.18	0	1	1.0494	0.9494
16	1	12.04	0.84	0	0	1	1.04655	-8.85	0	1	1.0494	0.9494
17	1	11.76	2.24	0	0	1	1.01401	-5.39	0	1	1.0494	0.9494
18	1	7.616	2.744	0	10	1	1.05971	-11.71	0	1	1.0494	0.9494
19	1	0.924	0.168	0	0	1	0.96981	-13.2	0	1	1.0494	0.9494
20	1	0.644	0.28	0	0	1	0.99136	-13.41	0	1	1.0494	0.9494
21	1	0	0	0	0	1	0.95288	-12.89	0	1	1.0494	0.9494
22	1	0	0	0	0	1	1.02771	-12.84	0	1	1.0494	0.9494
23	1	1.764	0.588	0	0	1	0.94596	-12.91	0	1	1.0494	0.9494
24	1	0	0	0	0	1	0.98922	-13.25	0	1	1.0494	0.9494
25	1	1.764	0.896	0	5.9	1	1.04832	-18.13	0	1	1.0494	0.9494
26	1	0	0	0	0	1	1.032	-12.95	0	1	1.0494	0.9494
27	1	2.604	0.14	0	0	1	1.0105	-11.48	0	1	1.0494	0.9494
28	1	1.288	0.644	0	0	1	1.01045	-10.45	0	1	1.0494	0.9494
29	1	4.76	0.728	0	0	1	0.94238	-9.75	0	1	1.0494	0.9494
30	1	1.008	0.504	0	0	1	1.04118	-18.68	0	1	1.0494	0.9494
31	1	1.624	0.812	0	0	1	0.99054	-19.34	0	1	1.0494	0.9494
32	1	0.448	0.224	0	0	1	1.05248	-18.46	0	1	1.0494	0.9494
33	1	1.064	0.532	0	0	1	1.04848	-18.5	0	1	1.0494	0.9494
34	1	0	0	0	0	1	0.98753	-14.1	0	1	1.0494	0.9494
35	1	1.68	0.84	0	0	1	1.02709	-13.86	0	1	1.0494	0.9494
36	1	0	0	0	0	1	0.98898	-13.59	0	1	1.0494	0.9494
37	1	0	0	0	0	1	0.95064	-13.41	0	1	1.0494	0.9494
38	1	3.92	1.96	0	0	1	1.05283	-12.71	0	1	1.0494	0.9494
39	1	0	0	0	0	1	0.96754	-13.46	0	1	1.0494	0.9494
40	1	0	0	0	0	1	1.0278	-13.62	0	1	1.0494	0.9494
41	1	1.764	0.84	0	0	1	1.00425	-14.05	0	1	1.0494	0.9494
42	1	1.988	1.232	0	0	1	1.02498	-15.5	0	1	1.0494	0.9494
43	1	0.56	0.28	0	0	1	0.97517	-11.33	0	1	1.0494	0.9494
44	1	3.36	0.504	0	0	1	0.96924	-11.86	0	1	1.0494	0.9494
45	1	0	0	0	0	1	1.05927	-9.25	0	1	1.0494	0.9494
46	1	0	0	0	0	1	0.94224	-11.89	0	1	1.0494	0.9494
47	1	8.316	3.248	0	0	1	0.97531	-12.49	0	1	1.0494	0.9494
48	1	0	0	0	0	1	1.02635	-12.59	0	1	1.0494	0.9494
49	1	5.04	2.38	0	0	1	1.01931	-12.92	0	1	1.0494	0.9494
50	1	5.88	2.94	0	0	1	0.98102	-13.39	0	1	1.0494	0.9494
51	1	5.04	1.484	0	0	1	1.04747	-12.52	0	1	1.0494	0.9494
52	1	1.372	0.616	0	0	1	1.03496	-11.47	0	1	1.0494	0.9494
53	1	5.6	2.8	0	6.3	1	1.03824	-12.23	0	1	1.0494	0.9494
54	1	1.148	0.392	0	0	1	1.05381	-11.69	0	1	1.0494	0.9494
55	1	1.904	0.952	0	0	1	1.03645	-10.78	0	1	1.0494	0.9494
56	1	2.128	0.616	0	0	1	1.01424	-16.04	0	1	1.0494	0.9494
57	1	1.876	0.56	0	0	1	0.9817	-16.56	0	1	1.0494	0.9494

];

%% generator data
%	bus	Pg	Qg	Qmax	Qmin	Vg	mBase	status	Pmax	Pmin	Pc1	Pc2	Qc1min	Qc1max	Qc2min	Qc2max	ramp_agc	ramp_10	ramp_30	ramp_q	apf
mpc.gen = [
1	427.52	184.58	200	-7	0.942	100	1	575.88	0	0	0	0	0	0	0	0	0	0	0	0
2	74.24	46.21	50	-0.85	1.033	100	1	100	0	0	0	0	0	0	0	0	0	0	0	0
3	103.93	55.49	60	-0.5	1.027	100	1	140	0	0	0	0	0	0	0	0	0	0	0	0
6	74.24	23.11	25	-0.4	1.051	100	1	100	0	0	0	0	0	0	0	0	0	0	0	0
8	408.31	184.58	200	-7	0.949	100	1	550	0	0	0	0	0	0	0	0	0	0	0	0
9	74.24	8.32	9	-0.15	0.971	100	1	100	0	0	0	0	0	0	0	0	0	0	0	0
12	304.37	142.90	155	-7.5	0.942	100	1	410	0	0	0	0	0	0	0	0	0	0	0	0
];

%% branch data
%	fbus	tbus	r	x	b	rateA	rateB	rateC	ratio	angle	status	angmin	angmax
mpc.branch = [
	1	2	0.0083	0.028	0.129	0	0	0	0	0	1	-360	360;
	2	3	0.0298	0.085	0.0818	0	0	0	0	0	1	-360	360;
	3	4	0.0112	0.0366	0.038	0	0	0	0	0	1	-360	360;
	4	5	0.0625	0.132	0.0258	0	0	0	0	0	1	-360	360;
	4	6	0.043	0.148	0.0348	0	0	0	0	0	1	-360	360;
	6	7	0.02	0.102	0.0276	0	0	0	0	0	1	-360	360;
	6	8	0.0339	0.173	0.047	0	0	0	0	0	1	-360	360;
	8	9	0.0099	0.0505	0.0548	0	0	0	0	0	1	-360	360;
	9	10	0.0369	0.1679	0.044	0	0	0	0	0	1	-360	360;
	9	11	0.0258	0.0848	0.0218	0	0	0	0	0	1	-360	360;
	9	12	0.0648	0.295	0.0772	0	0	0	0	0	1	-360	360;
	9	13	0.0481	0.158	0.0406	0	0	0	0	0	1	-360	360;
	13	14	0.0132	0.0434	0.011	0	0	0	0	0	1	-360	360;
	13	15	0.0269	0.0869	0.023	0	0	0	0	0	1	-360	360;
	1	15	0.0178	0.091	0.0988	0	0	0	0	0	1	-360	360;
	1	16	0.0454	0.206	0.0546	0	0	0	0	0	1	-360	360;
	1	17	0.0238	0.108	0.0286	0	0	0	0	0	1	-360	360;
	3	15	0.0162	0.053	0.0544	0	0	0	0	0	1	-360	360;
	4	18	0	0.555	0	0	0	0	0.97	0	1	-360	360;
	4	18	0	0.43	0	0	0	0	0.978	0	1	-360	360;
	5	6	0.0302	0.0641	0.0124	0	0	0	0	0	1	-360	360;
	7	8	0.0139	0.0712	0.0194	0	0	0	0	0	1	-360	360;
	10	12	0.0277	0.1262	0.0328	0	0	0	0	0	1	-360	360;
	11	13	0.0223	0.0732	0.0188	0	0	0	0	0	1	-360	360;
	12	13	0.0178	0.058	0.0604	0	0	0	0	0	1	-360	360;
	12	16	0.018	0.0813	0.0216	0	0	0	0	0	1	-360	360;
	12	17	0.0397	0.179	0.0476	0	0	0	0	0	1	-360	360;
	14	15	0.0171	0.0547	0.0148	0	0	0	0	0	1	-360	360;
	18	19	0.461	0.685	0	0	0	0	0	0	1	-360	360;
	19	20	0.283	0.434	0	0	0	0	0	0	1	-360	360;
	21	20	0	0.7767	0	0	0	0	1.043	0	1	-360	360;
	21	22	0.0736	0.117	0	0	0	0	0	0	1	-360	360;
	22	23	0.0099	0.0152	0	0	0	0	0	0	1	-360	360;
	23	24	0.166	0.256	0.0084	0	0	0	0	0	1	-360	360;
	24	25	0	1.182	0	0	0	0	1	0	1	-360	360;
	24	25	0	1.23	0	0	0	0	1	0	1	-360	360;
	24	26	0	0.0473	0	0	0	0	1.043	0	1	-360	360;
	26	27	0.165	0.254	0	0	0	0	0	0	1	-360	360;
	27	28	0.0618	0.0954	0	0	0	0	0	0	1	-360	360;
	28	29	0.0418	0.0587	0	0	0	0	0	0	1	-360	360;
	7	29	0	0.0648	0	0	0	0	0.967	0	1	-360	360;
	25	30	0.135	0.202	0	0	0	0	0	0	1	-360	360;
	30	31	0.326	0.497	0	0	0	0	0	0	1	-360	360;
	31	32	0.507	0.755	0	0	0	0	0	0	1	-360	360;
	32	33	0.0392	0.036	0	0	0	0	0	0	1	-360	360;
	34	32	0	0.953	0	0	0	0	0.975	0	1	-360	360;
	34	35	0.052	0.078	0.0032	0	0	0	0	0	1	-360	360;
	35	36	0.043	0.0537	0.0016	0	0	0	0	0	1	-360	360;
	36	37	0.029	0.0366	0	0	0	0	0	0	1	-360	360;
	37	38	0.0651	0.1009	0.002	0	0	0	0	0	1	-360	360;
	37	39	0.0239	0.0379	0	0	0	0	0	0	1	-360	360;
	36	40	0.03	0.0466	0	0	0	0	0	0	1	-360	360;
	22	38	0.0192	0.0295	0	0	0	0	0	0	1	-360	360;
	11	41	0	0.749	0	0	0	0	0.955	0	1	-360	360;
	41	42	0.207	0.352	0	0	0	0	0	0	1	-360	360;
	41	43	0	0.412	0	0	0	0	0	0	1	-360	360;
	38	44	0.0289	0.0585	0.002	0	0	0	0	0	1	-360	360;
	15	45	0	0.1042	0	0	0	0	0.955	0	1	-360	360;
	14	46	0	0.0735	0	0	0	0	0.9	0	1	-360	360;
	46	47	0.023	0.068	0.0032	0	0	0	0	0	1	-360	360;
	47	48	0.0182	0.0233	0	0	0	0	0	0	1	-360	360;
	48	49	0.0834	0.129	0.0048	0	0	0	0	0	1	-360	360;
	49	50	0.0801	0.128	0	0	0	0	0	0	1	-360	360;
	50	51	0.1386	0.22	0	0	0	0	0	0	1	-360	360;
	10	51	0	0.0712	0	0	0	0	0.93	0	1	-360	360;
	13	49	0	0.191	0	0	0	0	0.895	0	1	-360	360;
	29	52	0.1442	0.187	0	0	0	0	0	0	1	-360	360;
	52	53	0.0762	0.0984	0	0	0	0	0	0	1	-360	360;
	53	54	0.1878	0.232	0	0	0	0	0	0	1	-360	360;
	54	55	0.1732	0.2265	0	0	0	0	0	0	1	-360	360;
	11	43	0	0.153	0	0	0	0	0.958	0	1	-360	360;
	44	45	0.0624	0.1242	0.004	0	0	0	0	0	1	-360	360;
	40	56	0	1.195	0	0	0	0	0.958	0	1	-360	360;
	56	41	0.553	0.549	0	0	0	0	0	0	1	-360	360;
	56	42	0.2125	0.354	0	0	0	0	0	0	1	-360	360;
	39	57	0	1.355	0	0	0	0	0.98	0	1	-360	360;
	57	56	0.174	0.26	0	0	0	0	0	0	1	-360	360;
	38	49	0.115	0.177	0.003	0	0	0	0	0	1	-360	360;
	38	48	0.0312	0.0482	0	0	0	0	0	0	1	-360	360;
	9	55	0	0.1205	0	0	0	0	0.94	0	1	-360	360;
];

%%-----  OPF Data  -----%%
%% generator cost data
%	1	startup	shutdown	n	x1	y1	...	xn	yn
%	2	startup	shutdown	n	c(n-1)	...	c0
mpc.gencost = [
	2	0	0	3	0.0776	20	0;
	2	0	0	3	0.01	40	0;
	2	0	0	3	0.25	20	0;
	2	0	0	3	0.01	40	0;
	2	0	0	3	0.0222	20	0;
	2	0	0	3	0.01	40	0;
	2	0	0	3	0.0322	20	0;
];


%%%%%%%%%%%%%%%%%%%%%%%%% First local solution %%%%%%%%%%%%%%%%%%%%%%%%%%%%
% The first local solution has an objective value of 9125.817 $/hr.
%
% V_magnitude = [0.9589; 0.9549; 0.9565; 0.9576; 0.9537; 0.9527; 0.9514; 0.9494; 0.9500; 0.9576; 0.9517; 0.9617; 0.9518; 0.9494; 0.9566; 0.9609; 0.9590; 0.9977; 0.9884; 0.9859; 1.0246; 1.0247; 1.0246; 1.0267; 1.0473; 0.9841; 0.9822; 0.9833; 0.9849; 1.0412; 1.0320; 1.0319; 1.0313; 1.0076; 1.0089; 1.0109; 1.0142; 1.0249; 1.0131; 1.0087; 1.0016; 1.0004; 0.9953; 1.0199; 1.0117; 1.0470; 1.0360; 1.0328; 1.0374; 1.0296; 1.0305; 0.9865; 0.9891; 0.9979; 1.0089; 1.0079; 1.0102];
% V_angle = [0; -0.3889; -1.8063; -2.4808; -3.1871; -3.3728; -3.2714; -2.6896; -2.4787; -1.2127; -2.0323; 0.7177; -1.3395; -1.6549; -1.5150; 0.0581; -0.2342; -3.6532; -3.6716; -3.4804; -3.0611; -2.9849; -3.0497; -3.9053; -5.0347; -3.9165; -3.9289; -3.7913; -3.6774; -5.0813; -5.0245; -4.4901; -4.4995; -3.2537; -3.1485; -3.0401; -3.0014; -2.8397; -3.0077; -3.0093; -2.9825; -3.5677; -2.3272; -2.6032; -1.8636; -2.2748; -2.7203; -2.7397; -2.6453; -2.4417; -1.6080; -4.1597; -4.3612; -3.7255; -3.0080; -3.9041; -4.0834];
%
% Pg1 = 68.3829; % MW
% Pg2 = 0; % MW
% Pg3 = 6.5211; % MW 
% Pg6 = 0; % MW
% Pg8 = 53.0380; % MW
% Pg9 = 0; % MW
% Pg12 = 225.0260; % MW
%
% Qg1 = -7.00; % MVAr
% Qg2 = -0.85; % MVAr
% Qg3 = -0.50; % MVAr
% Qg6 = -0.40; % MVAr
% Qg8 = -7.00; % MVAr
% Qg9 = -0.15; % MVAr
% Qg12 = -7.50; % MVAr

%%%%%%%%%%%%%%%%%%%%%%%%% Second local solution %%%%%%%%%%%%%%%%%%%%%%%%%%%
% The second local solution has an objective value of 9168.47 $/hr.
%
% V_magnitude = [0.9636; 0.9591; 0.9589; 0.9595; 0.9547; 0.9533; 0.9517; 0.9494; 0.9494; 0.9554; 0.9513; 0.9582; 0.9514; 0.9500; 0.9585; 0.9596; 0.9605; 0.9999; 0.9894; 0.9863; 1.0255; 1.0254; 1.0254; 1.0274; 1.0480; 0.9847; 0.9827; 0.9837; 0.9854; 1.0419; 1.0326; 1.0324; 1.0318; 1.0081; 1.0094; 1.0114; 1.0147; 1.0256; 1.0136; 1.0091; 1.0011; 1.0004; 0.9949; 1.0211; 1.0139; 1.0476; 1.0366; 1.0333; 1.0370; 1.0284; 1.0279; 0.9867; 0.9891; 0.9974; 1.0081; 1.0082; 1.0107];
% V_angle = [0; -0.5473; -2.4505; -3.2431; -4.1246; -4.3966; -4.4597; -3.9702; -3.9627; -3.0378; -3.5006; -1.5023; -2.8075; -2.8692; -2.3930; -1.5335; -1.0665; -4.4578; -4.6254; -4.5299; -4.2640; -4.2114; -4.2759; -5.1256; -6.2593; -5.1361; -5.1399; -4.9993; -4.8834; -6.3077; -6.2556; -5.7290; -5.7383; -4.5030; -4.3986; -4.2908; -4.2493; -4.0730; -4.2582; -4.2642; -4.3966; -4.9560; -3.7808; -3.7633; -2.8680; -3.5086; -3.9735; -4.0001; -4.0166; -3.9551; -3.3654; -5.4288; -5.6636; -5.1063; -4.4620; -5.2662; -5.4265];
%
% Pg1 = 118.3451; % MW
% Pg2 = 0; % MW
% Pg3 = 9.5873; % MW
% Pg6 = 0; % MW
% Pg8 = 54.9975; % MW
% Pg9 = 0; % MW
% Pg12 = 170.0754; % MW
%
% Qg1 = -7; % MVAr
% Qg2 = -0.85; % MVAr
% Qg3 = -0.5; % MVAr
% Qg6 = -0.4; % MVAr
% Qg8 = -7; % MVAr
% Qg9 = -0.15; % MVAr
% Qg12 = -7.5; % MVAr

%%%%%%%%%%%%%%%%%%%%%%%%% Third local solution %%%%%%%%%%%%%%%%%%%%%%%%%%%%
% The third local solution has an objective value of 9185.615 $/hr.
%
% V_magnitude = [0.9642; 0.9601; 0.9609; 0.9618; 0.9576; 0.9564; 0.9550; 0.9528; 0.9503; 0.9529; 0.9511; 0.9529; 0.9502; 0.9494; 0.9588; 0.9558; 0.9587; 1.0024; 0.9903; 0.9862; 1.0257; 1.0254; 1.0254; 1.0287; 1.0494; 0.9859; 0.9855; 0.9871; 0.9891; 1.0431; 1.0334; 1.0325; 1.0319; 1.0081; 1.0093; 1.0113; 1.0145; 1.0254; 1.0135; 1.0090; 1.0009; 1.0002; 0.9946; 1.0210; 1.0143; 1.0470; 1.0360; 1.0328; 1.0357; 1.0265; 1.0249; 0.9897; 0.9918; 0.9990; 1.0088; 1.0081; 1.0106];
% V_angle = [0; -0.5092; -2.2942; -3.0388; -3.8303; -4.0588; -4.0760; -3.4522; -4.1456; -3.9245; -3.9232; -3.0261; -3.4387; -3.3122; -2.6088; -2.6242; -1.6354; -4.3059; -4.6469; -4.6633; -4.5865; -4.5618; -4.6140; -5.2565; -6.4345; -5.2273; -4.9861; -4.7545; -4.5823; -6.4982; -6.4848; -6.0178; -6.0272; -4.8674; -4.7692; -4.6657; -4.6262; -4.4542; -4.6358; -4.6400; -4.8083; -5.3618; -4.2005; -4.1105; -3.1426; -3.9435; -4.4003; -4.4238; -4.5359; -4.5899; -4.1985; -5.2345; -5.5259; -5.1041; -4.5878; -5.6660; -5.8223]; % degrees
%
% Pg1 = 136.9670; % MW
% Pg2 = 0; % MW
% Pg3 = 21.0737; % MW
% Pg6 = 0; % MW
% Pg8 = 81.6810; % MW
% Pg9 = 0; % MW
% Pg12 = 113.1632; % MW
%
% Qg1 = -7.00; % MVAr
% Qg2 = -0.85; % MVAr
% Qg3 = -0.50; % MVAr
% Qg6 = -0.40; % MVAr
% Qg8 = -7.00; % MVAr
% Qg9 = -0.15; % MVAr
% Qg12 = -7.50; % MVAr

%%%%%%%%%%%%%%%%%%%%%%%%% Fourth local solution %%%%%%%%%%%%%%%%%%%%%%%%%%%
% The fourth local solution has an objective value of 10414.024 $/hr.
%
% V_magnitude = [0.9524; 0.9532; 0.9603; 0.9641; 0.9655; 0.9630; 0.9625; 0.9619; 0.9576; 0.9601; 0.9556; 0.9635; 0.9526; 0.9494; 0.9554; 0.9610; 0.9564; 0.9995; 0.9931; 0.9895; 1.0260; 1.0259; 1.0261; 1.0324; 1.0494; 0.9888; 0.9917; 0.9946; 0.9976; 1.0434; 1.0367; 1.0342; 1.0336; 1.0100; 1.0110; 1.0129; 1.0158; 1.0255; 1.0148; 1.0108; 1.0058; 1.0035; 0.9994; 1.0196; 1.0093; 1.0465; 1.0358; 1.0330; 1.0382; 1.0313; 1.0338; 0.9983; 1.0003; 1.0073; 1.0167; 1.0096; 1.0112];
% V_angle = [0; 0.1938; 0.9284; 1.1117; 1.7399; 2.1889; 3.3796; 5.0543; 3.2247; 3.1410; 2.5796; 4.2580; 2.3807; 1.6531; 1.1538; 2.5993; 1.1006; -0.0425; 0.0159; 0.2547; 0.6778; 0.7657; 0.7516; 0.7476; -0.5264; 0.8906; 1.8761; 2.3836; 2.7266; -0.6278; -0.7122; -0.4014; -0.4108; 0.5608; 0.6423; 0.7343; 0.7486; 0.8155; 0.7532; 0.7821; 1.4286; 0.7396; 2.2302; 0.8474; 1.1471; 1.1578; 0.8380; 0.8666; 1.0897; 1.4883; 2.6563; 2.0959; 1.8148; 2.2541; 2.7848; 0.2967; 0.0412]; % degrees
%
% Pg1 = 0.00017; % MW
% Pg2 = 0.0049; % MW
% Pg3 = 11.9149; % MW
% Pg6 = 0.1661; % MW
% Pg8 = 158.1193; % MW
% Pg9 = 0.0089; % MW
% Pg12 = 233.2143; % MW
%
% Qg1 = -6.9836; % MVAr
% Qg2 = -0.8476; % MVAr
% Qg3 = -0.4950; % MVAr
% Qg6 = -0.3952; % MVAr
% Qg8 = -6.9948; % MVAr
% Qg9 = -0.1448; % MVAr
% Qg12 = -7.4770; % MVAr

%%%%%%%%%%%%%%%%%%%%%%%%% Objective value bound %%%%%%%%%%%%%%%%%%%%%%%%%%%
% The best known lower bound on the optimal objective value is 9030.70 $/hr.

